12
PPP pistack-s of polym-CAM-B3LYPp2p separated by 3.8 Ao, SG=pmmmy
  C         0.74370900     0.00000000     0.00000000
  C         1.48479800     1.18694700     0.00000000
  C         2.86954000     1.18694700     0.00000000
  C         3.61062900     0.00000000     0.00000000
  C         2.86954000    -1.18694700     0.00000000
  C         1.48479800    -1.18694700     0.00000000
  H         0.98296200     2.14702900     0.00000000
  H         3.37137600     2.14702900     0.00000000
  H         3.37137600    -2.14702900     0.00000000
  H         0.98296200    -2.14702900     0.00000000
  Tv        4.35433800     0.00000000     0.00000000
  Tv        0.00000000     0.00000000     3.80000000
