103 
P3HT cryst-CA optimized by PBE-D3paw900, SG=P21/c11, nm=4
  S         1.53455093    -0.92093733    -1.47789772
  C         0.32477093     0.22938732    -1.95892339
  C         2.84392093     0.13633733    -1.91037589
  C         0.92276093     1.40801233    -2.43261089
  C         2.32938343     1.33801232    -2.39854089
  H         2.97582343     2.14116733    -2.74686339
  C         0.13267593     2.58012232    -2.93548089
  C         0.92887093     3.76850732    -3.46946089
  H        -0.54025343     2.93629733    -2.13427589
  H        -0.54016093     2.22632232    -3.73689450
  C         0.00287343     4.79824732    -4.11631700
  H         1.66453093     3.41884732    -4.21036700
  H         1.50261093     4.23811233    -2.65422339
  C         0.69222093     6.08787233    -4.55420450
  H        -0.81061093     5.05024233    -3.41302089
  H        -0.49039093     4.33227232    -4.98763700
  C        -0.24707093     7.03670733    -5.29760950
  H         1.55848593     5.85213733    -5.19568700
  H         1.10368093     6.60162233    -3.66823589
  C         0.40435093     8.36446733    -5.66922950
  H        -1.13659093     7.21920732    -4.67279450
  H        -0.62105843     6.53761733    -6.20780700
  H        -0.30379843     9.04435233    -6.16156950
  H         1.24767593     8.20987232    -6.35691450
  H         0.79743093     8.87683733    -4.77955450
  S         5.43146280     0.92093732    -2.26144589
  C         4.22168280    -0.22938733    -1.78042022
  C         6.74083280    -0.13633732    -1.82896772
  C         4.81967280    -1.40801233    -1.30673272
  C         6.22629530    -1.33801233    -1.34080272
  H         6.87273530    -2.14116733    -0.99248022
  C         4.02958780    -2.58012232    -0.80386272
  C         4.82578280    -3.76850732    -0.26988272
  H         3.35665843    -2.93629733    -1.60506772
  H         3.35675093    -2.22632232    -0.00244911
  C         3.89978530    -4.79824732     0.37697339
  H         5.56144280    -3.41884732     0.47102339
  H         5.39952280    -4.23811233    -1.08512022
  C         4.58913280    -6.08787233     0.81486089
  H         3.08630093    -5.05024233    -0.32632272
  H         3.40652093    -4.33227232     1.24829339
  C         3.64984093    -7.03670733     1.55826589
  H         5.45539780    -5.85213733     1.45634339
  H         5.00059280    -6.60162233    -0.07110772
  C         4.30126280    -8.36446733     1.92988589
  H         2.76032093    -7.21920733     0.93345089
  H         3.27585343    -6.53761733     2.46846339
  H         3.59311343    -9.04435232     2.42222589
  H         5.14458780    -8.20987232     2.61757089
  H         4.69434280    -8.87683733     1.04021089
  S         2.36236093    -0.92093733     2.26144589
  C         3.57214093     0.22938732     1.78042022
  C         1.05299093     0.13633733     1.82896772
  C         2.97415093     1.40801233     1.30673272
  C         1.56752843     1.33801232     1.34080272
  H         0.92108843     2.14116733     0.99248022
  C         3.76423593     2.58012232     0.80386272
  C         2.96804093     3.76850732     0.26988272
  H         4.43707280     2.22632232     0.00244911
  H         4.43716530     2.93629733     1.60506772
  C         3.89403843     4.79824732    -0.37697339
  H         2.39430093     4.23811233     1.08512022
  H         2.23238093     3.41884732    -0.47102339
  C         3.20469093     6.08787233    -0.81486089
  H         4.38730280     4.33227232    -1.24829339
  H         4.70752280     5.05024233     0.32632272
  C         4.14398280     7.03670733    -1.55826589
  H         2.79323093     6.60162233     0.07110772
  H         2.33842593     5.85213733    -1.45634339
  C         3.49256093     8.36446733    -1.92988589
  H         4.51797030     6.53761733    -2.46846339
  H         5.03350280     7.21920732    -0.93345089
  H         4.20071030     9.04435233    -2.42222589
  H         3.09948093     8.87683733    -1.04021089
  H         2.64923593     8.20987232    -2.61757089
  S         6.25927280     0.92093732     1.47789772
  C         7.46905280    -0.22938733     1.95892339
  C         4.94990280    -0.13633732     1.91037589
  C         6.87106280    -1.40801233     2.43261089
  C         5.46444030    -1.33801233     2.39854089
  H         4.81800030    -2.14116733     2.74686339
  C         7.66114780    -2.58012232     2.93548089
  C         6.86495280    -3.76850732     3.46946089
  H         8.33398466    -2.22632232     3.73689450
  H         8.33407716    -2.93629733     2.13427589
  C         7.79095030    -4.79824732     4.11631700
  H         6.29121280    -4.23811233     2.65422339
  H         6.12929280    -3.41884732     4.21036700
  C         7.10160280    -6.08787233     4.55420450
  H         8.28421466    -4.33227232     4.98763700
  H         8.60443466    -5.05024233     3.41302089
  C         8.04089466    -7.03670733     5.29760950
  H         6.69014280    -6.60162233     3.66823589
  H         6.23533780    -5.85213733     5.19568700
  C         7.38947280    -8.36446733     5.66922950
  H         8.41488216    -6.53761733     6.20780700
  H         8.93041466    -7.21920733     4.67279450
  H         8.09762216    -9.04435232     6.16156950
  H         6.99639280    -8.87683733     4.77955450
  H         6.54614780    -8.20987232     6.35691450
  Tv        7.79382373     0.00000000     0.00000000
  Tv        0.00000000    17.20414465     0.03861683
  Tv        0.00000000     0.00000000     7.47868722
