11 
polyTzTz cryst-a optimized by PBE-D3paw900, SG=P-1, nm=1
  C         0.71652077     0.01597141    -0.00815333
  N         1.48205696    -0.98267061     0.42936875
  C         2.77682296    -0.63537023     0.27873339
  C         3.04226867     0.63537023    -0.27873339
  S         1.55560834     1.43335871    -0.62991215
  N         4.33703467     0.98267061    -0.42936875
  S         4.26348329    -1.43335871     0.62991215
  C         5.10257085    -0.01597141     0.00815333
  Tv        5.81909163     0.00000000     0.00000000
  Tv        1.33981359     5.10267775     0.84944226
  Tv        0.39291070     0.00000000     3.77600794
